instances/data_GOC/Phase_0_RTS96/scenario_88/powersystem.raw
 0,  100.000000
rts96_spring_wday.raw / File written by to_psse.gms
5 / 19 / 2015
101, ' 101 ',138,2,1,1,1,1.00,0.00,1.1,0.9,1.1,0.9
102, ' 102 ',138,2,1,1,1,1.00,0.00,1.1,0.9,1.1,0.9
103, ' 103 ',138,1,1,1,1,1.00,0.00,1.1,0.9,1.1,0.9
104, ' 104 ',138,1,1,1,1,1.00,0.00,1.1,0.9,1.1,0.9
105, ' 105 ',138,1,1,1,1,1.00,0.00,1.1,0.9,1.1,0.9
106, ' 106 ',138,1,1,1,1,1.00,0.00,1.1,0.9,1.1,0.9
107, ' 107 ',138,2,1,1,1,1.00,0.00,1.1,0.9,1.1,0.9
108, ' 108 ',138,1,1,1,1,1.00,0.00,1.1,0.9,1.1,0.9
109, ' 109 ',138,1,1,1,1,1.00,0.00,1.1,0.9,1.1,0.9
110, ' 110 ',138,1,1,1,1,1.00,0.00,1.1,0.9,1.1,0.9
111, ' 111 ',230,1,1,1,1,1.00,0.00,1.1,0.9,1.1,0.9
112, ' 112 ',230,1,1,1,1,1.00,0.00,1.1,0.9,1.1,0.9
113, ' 113 ',230,3,1,1,1,1.00,0.00,1.1,0.9,1.1,0.9
114, ' 114 ',230,2,1,1,1,1.00,0.00,1.1,0.9,1.1,0.9
115, ' 115 ',230,2,1,1,1,1.00,0.00,1.1,0.9,1.1,0.9
116, ' 116 ',230,2,1,1,1,1.00,0.00,1.1,0.9,1.1,0.9
117, ' 117 ',230,1,1,1,1,1.00,0.00,1.1,0.9,1.1,0.9
118, ' 118 ',230,2,1,1,1,1.00,0.00,1.1,0.9,1.1,0.9
119, ' 119 ',230,1,1,1,1,1.00,0.00,1.1,0.9,1.1,0.9
120, ' 120 ',230,1,1,1,1,1.00,0.00,1.1,0.9,1.1,0.9
121, ' 121 ',230,2,1,1,1,1.00,0.00,1.1,0.9,1.1,0.9
122, ' 122 ',230,2,1,1,1,1.00,0.00,1.1,0.9,1.1,0.9
123, ' 123 ',230,2,1,1,1,1.00,0.00,1.1,0.9,1.1,0.9
124, ' 124 ',230,1,1,1,1,1.00,0.00,1.1,0.9,1.1,0.9
201, ' 201 ',138,2,1,1,1,1.00,0.00,1.1,0.9,1.1,0.9
202, ' 202 ',138,2,1,1,1,1.00,0.00,1.1,0.9,1.1,0.9
203, ' 203 ',138,1,1,1,1,1.00,0.00,1.1,0.9,1.1,0.9
204, ' 204 ',138,1,1,1,1,1.00,0.00,1.1,0.9,1.1,0.9
205, ' 205 ',138,1,1,1,1,1.00,0.00,1.1,0.9,1.1,0.9
206, ' 206 ',138,1,1,1,1,1.00,0.00,1.1,0.9,1.1,0.9
207, ' 207 ',138,2,1,1,1,1.00,0.00,1.1,0.9,1.1,0.9
208, ' 208 ',138,1,1,1,1,1.00,0.00,1.1,0.9,1.1,0.9
209, ' 209 ',138,1,1,1,1,1.00,0.00,1.1,0.9,1.1,0.9
210, ' 210 ',138,1,1,1,1,1.00,0.00,1.1,0.9,1.1,0.9
211, ' 211 ',230,1,1,1,1,1.00,0.00,1.1,0.9,1.1,0.9
212, ' 212 ',230,1,1,1,1,1.00,0.00,1.1,0.9,1.1,0.9
213, ' 213 ',230,2,1,1,1,1.00,0.00,1.1,0.9,1.1,0.9
214, ' 214 ',230,2,1,1,1,1.00,0.00,1.1,0.9,1.1,0.9
215, ' 215 ',230,2,1,1,1,1.00,0.00,1.1,0.9,1.1,0.9
216, ' 216 ',230,2,1,1,1,1.00,0.00,1.1,0.9,1.1,0.9
217, ' 217 ',230,1,1,1,1,1.00,0.00,1.1,0.9,1.1,0.9
218, ' 218 ',230,2,1,1,1,1.00,0.00,1.1,0.9,1.1,0.9
219, ' 219 ',230,1,1,1,1,1.00,0.00,1.1,0.9,1.1,0.9
220, ' 220 ',230,1,1,1,1,1.00,0.00,1.1,0.9,1.1,0.9
221, ' 221 ',230,2,1,1,1,1.00,0.00,1.1,0.9,1.1,0.9
222, ' 222 ',230,2,1,1,1,1.00,0.00,1.1,0.9,1.1,0.9
223, ' 223 ',230,2,1,1,1,1.00,0.00,1.1,0.9,1.1,0.9
224, ' 224 ',230,1,1,1,1,1.00,0.00,1.1,0.9,1.1,0.9
301, ' 301 ',138,2,1,1,1,1.00,0.00,1.1,0.9,1.1,0.9
302, ' 302 ',138,2,1,1,1,1.00,0.00,1.1,0.9,1.1,0.9
303, ' 303 ',138,1,1,1,1,1.00,0.00,1.1,0.9,1.1,0.9
304, ' 304 ',138,1,1,1,1,1.00,0.00,1.1,0.9,1.1,0.9
305, ' 305 ',138,1,1,1,1,1.00,0.00,1.1,0.9,1.1,0.9
306, ' 306 ',138,1,1,1,1,1.00,0.00,1.1,0.9,1.1,0.9
307, ' 307 ',138,2,1,1,1,1.00,0.00,1.1,0.9,1.1,0.9
308, ' 308 ',138,1,1,1,1,1.00,0.00,1.1,0.9,1.1,0.9
309, ' 309 ',138,1,1,1,1,1.00,0.00,1.1,0.9,1.1,0.9
310, ' 310 ',138,1,1,1,1,1.00,0.00,1.1,0.9,1.1,0.9
311, ' 311 ',230,1,1,1,1,1.00,0.00,1.1,0.9,1.1,0.9
312, ' 312 ',230,1,1,1,1,1.00,0.00,1.1,0.9,1.1,0.9
313, ' 313 ',230,2,1,1,1,1.00,0.00,1.1,0.9,1.1,0.9
314, ' 314 ',230,2,1,1,1,1.00,0.00,1.1,0.9,1.1,0.9
315, ' 315 ',230,2,1,1,1,1.00,0.00,1.1,0.9,1.1,0.9
316, ' 316 ',230,2,1,1,1,1.00,0.00,1.1,0.9,1.1,0.9
317, ' 317 ',230,1,1,1,1,1.00,0.00,1.1,0.9,1.1,0.9
318, ' 318 ',230,2,1,1,1,1.00,0.00,1.1,0.9,1.1,0.9
319, ' 319 ',230,1,1,1,1,1.00,0.00,1.1,0.9,1.1,0.9
320, ' 320 ',230,1,1,1,1,1.00,0.00,1.1,0.9,1.1,0.9
321, ' 321 ',230,2,1,1,1,1.00,0.00,1.1,0.9,1.1,0.9
322, ' 322 ',230,2,1,1,1,1.00,0.00,1.1,0.9,1.1,0.9
323, ' 323 ',230,2,1,1,1,1.00,0.00,1.1,0.9,1.1,0.9
324, ' 324 ',230,1,1,1,1,1.00,0.00,1.1,0.9,1.1,0.9
325, ' 325 ',230,1,1,1,1,1.00,0.00,1.1,0.9,1.1,0.9
0 / END OF BUS DATA, BEGIN LOAD DATA
101, '1 ',1,11,11,53.098461883889314,18.76581950613549,0.0,0.0,0.0,0.0,1,1,0
102, '1 ',1,11,12,47.45189325742288,13.048396963859908,0.0,0.0,0.0,0.0,1,1,0
103, '1 ',1,11,11,133.60421170445343,31.35422880262616,0.0,0.0,0.0,0.0,1,1,0
104, '1 ',1,11,11,62.10147201251797,7.839335612169931,0.0,0.0,0.0,0.0,1,1,0
105, '1 ',1,11,11,37.05013234292683,8.568946494722832,0.0,0.0,0.0,0.0,1,1,0
106, '1 ',1,11,12,74.68562909171843,21.77428526219297,0.0,0.0,0.0,0.0,1,1,0
107, '1 ',1,11,12,99.35359107453259,20.812339498666116,0.0,0.0,0.0,0.0,1,1,0
108, '1 ',1,11,12,125.3249400872047,21.40474989777594,0.0,0.0,0.0,0.0,1,1,0
109, '1 ',1,11,13,128.49512335628273,30.82302071608007,0.0,0.0,0.0,0.0,1,1,0
110, '1 ',1,11,13,111.2068371600746,20.996481538921593,0.0,0.0,0.0,0.0,1,1,0
111, '1 ',1,11,13,0.0,0.0,0.0,0.0,0.0,0.0,1,1,0
112, '1 ',1,11,13,0.0,0.0,0.0,0.0,0.0,0.0,1,1,0
113, '1 ',1,12,14,209.28486758097216,38.798056868264354,0.0,0.0,0.0,0.0,1,1,0
114, '1 ',1,12,16,174.49772647186546,22.904103015338954,0.0,0.0,0.0,0.0,1,1,0
115, '1 ',1,12,16,233.73438397986138,42.00494397947788,0.0,0.0,0.0,0.0,1,1,0
116, '1 ',1,12,16,89.76059166062157,9.956272232889196,0.0,0.0,0.0,0.0,1,1,0
117, '1 ',1,12,17,0.0,0.0,0.0,0.0,0.0,0.0,1,1,0
118, '1 ',1,12,17,256.2334681699722,51.53145505707655,0.0,0.0,0.0,0.0,1,1,0
119, '1 ',1,12,15,91.34226612712376,20.83234796957611,0.0,0.0,0.0,0.0,1,1,0
120, '1 ',1,12,15,110.93156653304099,15.646140634036158,0.0,0.0,0.0,0.0,1,1,0
121, '1 ',1,12,17,0.0,0.0,0.0,0.0,0.0,0.0,1,1,0
122, '1 ',1,12,17,0.0,0.0,0.0,0.0,0.0,0.0,1,1,0
123, '1 ',1,12,15,0.0,0.0,0.0,0.0,0.0,0.0,1,1,0
124, '1 ',1,12,16,0.0,0.0,0.0,0.0,0.0,0.0,1,1,0
201, '1 ',1,21,21,54.403923884814965,14.885948103646841,0.0,0.0,0.0,0.0,1,1,0
202, '1 ',1,21,22,61.62329594515432,15.267139636913315,0.0,0.0,0.0,0.0,1,1,0
203, '1 ',1,21,21,142.59376751826144,20.495529783979148,0.0,0.0,0.0,0.0,1,1,0
204, '1 ',1,21,21,47.39644586007641,7.713089734660461,0.0,0.0,0.0,0.0,1,1,0
205, '1 ',1,21,21,52.351063799312996,11.917390502973833,0.0,0.0,0.0,0.0,1,1,0
206, '1 ',1,21,22,115.00051007050688,14.8146190690672,0.0,0.0,0.0,0.0,1,1,0
207, '1 ',1,21,22,76.61619097640505,12.888221757430582,0.0,0.0,0.0,0.0,1,1,0
208, '1 ',1,21,22,122.12336802828675,24.06980347178201,0.0,0.0,0.0,0.0,1,1,0
209, '1 ',1,21,23,113.35197069252958,21.885321806815266,0.0,0.0,0.0,0.0,1,1,0
210, '1 ',1,21,23,108.23686824061791,23.821825792914257,0.0,0.0,0.0,0.0,1,1,0
211, '1 ',1,21,23,0.0,0.0,0.0,0.0,0.0,0.0,1,1,0
212, '1 ',1,21,23,0.0,0.0,0.0,0.0,0.0,0.0,1,1,0
213, '1 ',1,22,24,198.7278997944931,36.937156874450764,0.0,0.0,0.0,0.0,1,1,0
214, '1 ',1,22,26,146.28166478256276,24.345368291511807,0.0,0.0,0.0,0.0,1,1,0
215, '1 ',1,22,26,193.58233220198542,43.818391989710925,0.0,0.0,0.0,0.0,1,1,0
216, '1 ',1,22,26,87.55337880566249,9.74709370911587,0.0,0.0,0.0,0.0,1,1,0
217, '1 ',1,22,27,0.0,0.0,0.0,0.0,0.0,0.0,1,1,0
218, '1 ',1,22,27,224.23576489232195,57.78399403206613,0.0,0.0,0.0,0.0,1,1,0
219, '1 ',1,22,25,122.21492034782489,27.426069323132555,0.0,0.0,0.0,0.0,1,1,0
220, '1 ',1,22,25,81.16947238277793,17.36277086534528,0.0,0.0,0.0,0.0,1,1,0
221, '1 ',1,22,27,0.0,0.0,0.0,0.0,0.0,0.0,1,1,0
222, '1 ',1,22,27,0.0,0.0,0.0,0.0,0.0,0.0,1,1,0
223, '1 ',1,22,25,0.0,0.0,0.0,0.0,0.0,0.0,1,1,0
224, '1 ',1,22,26,0.0,0.0,0.0,0.0,0.0,0.0,1,1,0
301, '1 ',1,31,31,96.67391467435006,11.145125009256788,0.0,0.0,0.0,0.0,1,1,0
302, '1 ',1,31,32,47.760809500727106,17.83294065439515,0.0,0.0,0.0,0.0,1,1,0
303, '1 ',1,31,31,111.07637397741247,27.85449402850885,0.0,0.0,0.0,0.0,1,1,0
304, '1 ',1,31,31,36.01396274108793,11.624996488004223,0.0,0.0,0.0,0.0,1,1,0
305, '1 ',1,31,31,44.3707168936925,8.36758248232752,0.0,0.0,0.0,0.0,1,1,0
306, '1 ',1,31,32,120.23716493512543,19.73355519776512,0.0,0.0,0.0,0.0,1,1,0
307, '1 ',1,31,32,101.87217611434171,15.642020145028363,0.0,0.0,0.0,0.0,1,1,0
308, '1 ',1,31,32,152.35185135684208,20.299328545626718,0.0,0.0,0.0,0.0,1,1,0
309, '1 ',1,31,33,148.4941098541464,27.549677335997856,0.0,0.0,0.0,0.0,1,1,0
310, '1 ',1,31,33,119.74788668836327,19.891883689541366,0.0,0.0,0.0,0.0,1,1,0
311, '1 ',1,31,33,0.0,0.0,0.0,0.0,0.0,0.0,1,1,0
312, '1 ',1,31,33,0.0,0.0,0.0,0.0,0.0,0.0,1,1,0
313, '1 ',1,32,34,200.19447148052976,28.986742347687017,0.0,0.0,0.0,0.0,1,1,0
314, '1 ',1,32,36,118.75456872323548,30.424956154594714,0.0,0.0,0.0,0.0,1,1,0
315, '1 ',1,32,36,231.66583535082424,34.39161042020022,0.0,0.0,0.0,0.0,1,1,0
316, '1 ',1,32,36,88.80009054851253,16.681287107119335,0.0,0.0,0.0,0.0,1,1,0
317, '1 ',1,32,37,0.0,0.0,0.0,0.0,0.0,0.0,1,1,0
318, '1 ',1,32,37,198.0588884711679,36.58557776845973,0.0,0.0,0.0,0.0,1,1,0
319, '1 ',1,32,35,117.10774806724191,32.69133026254904,0.0,0.0,0.0,0.0,1,1,0
320, '1 ',1,32,35,70.75906346985697,15.394443884408846,0.0,0.0,0.0,0.0,1,1,0
321, '1 ',1,32,37,0.0,0.0,0.0,0.0,0.0,0.0,1,1,0
322, '1 ',1,32,37,0.0,0.0,0.0,0.0,0.0,0.0,1,1,0
323, '1 ',1,32,35,0.0,0.0,0.0,0.0,0.0,0.0,1,1,0
324, '1 ',1,32,36,0.0,0.0,0.0,0.0,0.0,0.0,1,1,0
325, '1 ',1,32,35,0.0,0.0,0.0,0.0,0.0,0.0,1,1,0
0 / END OF LOAD DATA, BEGIN FIXED SHUNT DATA
0 / END OF FIXED SHUNT DATA, BEGIN GENERATOR DATA
101,1,10,0,7.509177628904581,-5.450568869244307,1.035,0,24,0,1,0,0,1,1,100,19.846954902634025,16.465807768013327,1,1,0,1
101,2,10,0,8.389290677383542,-4.094930279999971,1.035,0,24,0,1,0,0,1,1,100,18.69118474330753,15.323671320863069,1,1,0,1
101,3,76,14.1,24.82239254331216,-38.175851905019954,1.035,0,89,0,1,0,0,1,1,100,63.60738349035382,13.286199093312021,1,1,0,1
101,4,76,14.1,35.82587314769626,-24.82427588524297,1.035,0,89,0,1,0,0,1,1,100,63.09502242691815,26.2842432712302,1,1,0,1
102,5,10,0,12.649247099645438,0.49969142815098344,1.035,0,24,0,1,0,0,1,1,100,21.917120030149817,18.6219765211083,1,1,0,1
102,6,10,0,10.395436214283109,-0.5778087694197893,1.035,0,24,0,1,0,0,1,1,100,18.31664350721985,14.08341027040966,1,1,0,1
102,7,76,7,27.491047844756395,-12.105184582760558,1.035,0,89,0,1,0,0,1,1,100,78.80321001987905,27.471236439459027,1,1,0,1
102,8,76,7,21.711243011523038,-38.89045342360623,1.035,0,89,0,1,0,0,1,1,100,66.5337563002482,15.869630290754138,1,1,0,1
107,9,80,17.2,68.31865125987679,6.047370311804116,1.025,0,118,0,1,0,0,1,1,100,110.9666145592928,21.657360843382776,1,1,0,1
107,10,80,17.2,64.25926342606544,-5.6523454478010535,1.025,0,118,0,1,0,0,1,1,100,86.09980762004852,32.79229355002865,1,1,0,1
107,11,80,17.2,71.00558540504426,26.815379882231362,1.025,0,118,0,1,0,0,1,1,100,70.36549753975123,37.367339570979716,1,1,0,1
113,12,95.1,40.7,87.71369835361838,22.25324697420001,1.02,0,232,0,1,0,0,1,1,100,197.39766321917998,34.489698223208535,1,1,0,1
113,13,95.1,40.7,64.88355888053775,-32.25939919799566,1.02,0,232,0,1,0,0,1,1,100,208.56951923156157,53.30334144040941,1,1,0,1
113,14,95.1,40.7,69.3128105327487,-25.537271842360497,1.02,0,232,0,1,0,0,1,1,100,214.31344843111003,108.43796706284864,1,1,0,1
114,15,0,13.7,187.53768765367568,-16.098551931791008,0.98,0,100,0,1,0,0,1,1,100,0.0,0.0,1,1,0,1
115,16,12,0,5.374571045581252,0.8193921189755216,1.014,0,14,0,1,0,0,1,1,100,12.047683290950955,0.4662665481492887,1,1,0,1
115,17,12,0,6.2382086162455375,0.9698236112482848,1.014,0,14,0,1,0,0,1,1,100,12.053860161826016,1.9209030928462774,1,1,0,1
115,18,12,0,4.306988228112459,-2.1046816748566926,1.014,0,14,0,1,0,0,1,1,100,13.92493551056832,3.595050752274691,1,1,0,1
115,19,12,0,4.892247688584029,-0.24275496555492282,1.014,0,14,0,1,0,0,1,1,100,13.530862517282365,4.728552764430642,1,1,0,1
115,20,12,0,5.6959517246112235,1.0687667353078734,1.014,0,14,0,1,0,0,1,1,100,8.42093131877482,2.504517987051091,1,1,0,1
115,21,155,0.05,89.98199643939734,-4.115116391330957,1.014,0,182,0,1,0,0,1,1,100,195.5144891261589,82.20957778452433,1,1,0,1
116,22,155,25.22,57.66151359677315,-37.382488270290196,1.017,0,182,0,1,0,0,1,1,100,155.10398934269324,41.829669874859974,1,1,0,1
118,23,400,137.4,168.86060272343454,-74.47356640361252,1.05,0,471,0,1,0,0,1,1,100,411.8471940606833,31.473494987003562,1,1,0,1
121,24,400,108.2,226.55543060041964,1.8723495327867568,1.05,0,471,0,1,0,0,1,1,100,489.02194472029805,211.31852037273347,1,1,0,1
122,25,50,-4.96,13.182731734216214,-10.582001769542694,1.05,0,53,0,1,0,0,1,1,100,58.276287196204066,6.864192799894213,1,1,0,1
122,26,50,-4.96,11.805132757872343,-8.420266884006558,1.05,0,53,0,1,0,0,1,1,100,40.51482765702531,25.064203952677055,1,1,0,1
122,27,50,-4.96,12.181205793470143,-18.37073456104845,1.05,0,53,0,1,0,0,1,1,100,62.47839100891724,2.653733119368546,1,1,0,1
122,28,50,-4.96,11.855111838132142,-8.893780957162381,1.05,0,53,0,1,0,0,1,1,100,37.70584610756487,25.520692046534226,1,1,0,1
122,29,50,-4.96,12.720992384850978,-14.733260647766292,1.05,0,53,0,1,0,0,1,1,100,52.9139373730868,16.862992176320397,1,1,0,1
122,30,50,-4.96,17.634008848667143,-12.658349822461606,1.05,0,53,0,1,0,0,1,1,100,43.80089729325846,7.745606191456318,1,1,0,1
123,31,155,31.79,98.06540767848492,-69.89331722725183,1.05,0,182,0,1,0,0,1,1,100,140.6418875020463,49.25301562136737,1,1,0,1
123,32,155,31.79,59.30151407793164,-96.99645354226232,1.05,0,182,0,1,0,0,1,1,100,153.1690201384481,25.155153494072152,1,1,0,1
123,33,350,71.78,147.9424824519083,-79.07309864531268,1.05,0,412,0,1,0,0,1,1,100,349.03129567625,86.223427885212,1,1,0,1
201,34,10,0,10.435822854284197,0.8789906585589051,1.035,0,24,0,1,0,0,1,1,100,19.17861728463322,15.431807857332752,1,1,0,1
201,35,10,0,11.712494476232678,1.3819718607701361,1.035,0,24,0,1,0,0,1,1,100,23.659920401871204,19.400913288313895,1,1,0,1
201,36,76,14.1,27.861075782217085,-28.376377328997485,1.035,0,89,0,1,0,0,1,1,100,56.66408525630832,40.107609296467,1,1,0,1
201,37,76,14.1,27.4715808914043,-24.518599150935188,1.035,0,89,0,1,0,0,1,1,100,63.91158315185458,13.506759899593902,1,1,0,1
202,38,10,0,7.386390557978302,-1.3482273872941732,1.035,0,24,0,1,0,0,1,1,100,14.420774713158606,10.14684998546727,1,1,0,1
202,39,10,0,12.611525326501578,0.994226383510977,1.035,0,24,0,1,0,0,1,1,100,20.091236415319145,15.193939579240979,1,1,0,1
202,40,76,7,25.49850526778027,-44.915899595711394,1.035,0,89,0,1,0,0,1,1,100,81.08712498433887,2.7606293768435677,1,1,0,1
202,41,76,7,24.9942620806396,-14.56930255680345,1.035,0,89,0,1,0,0,1,1,100,91.66641517989339,47.675457156375074,1,1,0,1
207,42,80,17.2,70.56782425940037,-0.7214720472693443,1.025,0,118,0,1,0,0,1,1,100,123.45421154517679,56.62124319351277,1,1,0,1
207,43,80,17.2,49.69561416283249,-21.01591651048512,1.025,0,118,0,1,0,0,1,1,100,118.01623147446662,26.25110489781946,1,1,0,1
207,44,80,17.2,77.21441020723432,12.948160615749657,1.025,0,118,0,1,0,0,1,1,100,93.68061247747391,23.748974091140553,1,1,0,1
213,45,95.1,40.7,67.63563868030906,-13.162111267447472,1.02,0,232,0,1,0,0,1,1,100,169.00267177643252,30.510963571772407,1,1,0,1
213,46,95.1,40.7,87.15788297727704,20.46316320821643,1.02,0,232,0,1,0,0,1,1,100,225.52818406978622,118.38408549093641,1,1,0,1
213,47,95.1,40.7,97.32102105021477,28.625442925840616,1.02,0,232,0,1,0,0,1,1,100,210.15542910108343,105.25550956892083,1,1,0,1
214,48,0,13.68,173.4661091864109,-70.25939902057871,0.98,0,100,0,1,0,0,1,1,100,0.0,0.0,1,1,0,1
215,49,12,0,6.404922813735902,0.502688241004944,1.014,0,14,0,1,0,0,1,1,100,12.130379613675176,4.283843810297548,1,1,0,1
215,50,12,0,4.62897356422618,-1.4498580012470494,1.014,0,14,0,1,0,0,1,1,100,11.033019653521478,3.938136972896756,1,1,0,1
215,51,12,0,5.664730384200812,-1.2427530501969146,1.014,0,14,0,1,0,0,1,1,100,10.049424318037929,0.407739387564364,1,1,0,1
215,52,12,0,7.037003882881255,1.5414172419346883,1.014,0,14,0,1,0,0,1,1,100,13.921033600531517,6.958392828516661,1,1,0,1
215,53,12,0,7.55548307793215,0.6990499156527239,1.014,0,14,0,1,0,0,1,1,100,9.812621932849288,0.5609797590225938,1,1,0,1
215,54,155,0.048,93.4070081487298,-10.251973914448172,1.014,0,182,0,1,0,0,1,1,100,129.1597198517993,14.161070525506503,1,1,0,1
216,55,155,25.22,77.53596137464046,-46.88120629964395,1.017,0,182,0,1,0,0,1,1,100,122.33167857909574,36.14685907005331,1,1,0,1
218,56,400,137.4,238.85104075074196,-66.35467151878402,1.05,0,471,0,1,0,0,1,1,100,326.68152298778296,13.483503856696188,1,1,0,1
221,57,400,108.2,194.79280250146985,-63.45604075118899,1.05,0,471,0,1,0,0,1,1,100,461.7919970862568,146.3783241109923,1,1,0,1
222,58,50,-4.96,12.68655813410878,-11.049778627790511,1.05,0,53,0,1,0,0,1,1,100,54.85481163021178,14.391332881059505,1,1,0,1
222,59,50,-4.96,17.57029626145959,-5.502966081444175,1.05,0,53,0,1,0,0,1,1,100,60.10304243536666,4.007880978751935,1,1,0,1
222,60,50,-4.96,19.708929235488178,-8.521618927642702,1.05,0,53,0,1,0,0,1,1,100,38.57377580134198,0.8941788598895073,1,1,0,1
222,61,50,-4.96,14.484627944976092,-13.267423037625848,1.05,0,53,0,1,0,0,1,1,100,48.154285901691765,8.060257059987634,1,1,0,1
222,62,50,-4.96,20.216979891806844,-2.8062028952874236,1.05,0,53,0,1,0,0,1,1,100,44.41544762114063,19.25430493274528,1,1,0,1
222,63,50,-4.96,17.04815888032317,-1.8241345986723871,1.05,0,53,0,1,0,0,1,1,100,60.34240684006363,1.0194504470564425,1,1,0,1
223,64,155,31.79,93.29144521802664,-28.333517670165747,1.05,0,182,0,1,0,0,1,1,100,187.4783526095562,98.02392871666237,1,1,0,1
223,65,155,31.79,65.12007547914982,-67.59358588699251,1.05,0,182,0,1,0,0,1,1,100,140.81743734935299,64.1872462644591,1,1,0,1
223,66,350,71.78,176.52202025754377,-26.90731299459003,1.05,0,412,0,1,0,0,1,1,100,303.5402515460737,73.72080891532826,1,1,0,1
301,67,10,0,12.726327602285892,5.110971714835615,1.035,0,24,0,1,0,0,1,1,100,22.03980013821274,18.12873138695024,1,1,0,1
301,68,10,0,11.529268424026668,3.0290715666487813,1.035,0,24,0,1,0,0,1,1,100,22.762845689430833,18.4154028894566,1,1,0,1
301,69,76,14.1,26.313630712218583,-16.314513239776716,1.035,0,89,0,1,0,0,1,1,100,55.65376563016325,50.74245455015003,1,1,0,1
301,70,76,14.1,38.481128740590066,-6.583328658016391,1.035,0,89,0,1,0,0,1,1,100,69.80308692213148,22.734458704106515,1,1,0,1
302,71,10,0,12.364258529152723,3.176745409145953,1.035,0,24,0,1,0,0,1,1,100,16.958808036521077,12.737813450973482,1,1,0,1
302,72,10,0,11.284930911846459,0.023302795831114054,1.035,0,24,0,1,0,0,1,1,100,20.764587336219847,16.942667289534583,1,1,0,1
302,73,76,7,26.597567388787866,-40.56501533370465,1.035,0,89,0,1,0,0,1,1,100,74.10156462453305,30.638792091235516,1,1,0,1
302,74,76,7,36.35020008729771,-33.55405024206267,1.035,0,89,0,1,0,0,1,1,100,82.97596158757806,18.605998096466067,1,1,0,1
307,75,80,17.2,58.29523193836212,9.725411675870419,1.025,0,118,0,1,0,0,1,1,100,108.255197503604,11.619767964584753,1,1,0,1
307,76,80,17.2,72.48767003696413,-5.196348063647733,1.025,0,118,0,1,0,0,1,1,100,77.65902667772025,54.19871644526955,1,1,0,1
307,77,80,17.2,49.52568716090172,-24.37010351568461,1.025,0,118,0,1,0,0,1,1,100,83.76025879755615,0.8817226025550522,1,1,0,1
313,78,95.1,40.7,101.46413625404239,-1.447965670377016,1.02,0,232,0,1,0,0,1,1,100,143.24839111971667,14.097799969711048,1,1,0,1
313,79,95.1,40.7,77.09822898730636,20.08464815095067,1.02,0,232,0,1,0,0,1,1,100,166.22549286368303,12.32861846963175,1,1,0,1
313,80,95.1,40.7,72.9202981851995,-8.679263144731522,1.02,0,232,0,1,0,0,1,1,100,170.50221980269998,33.97040551282234,1,1,0,1
314,81,0,13.68,238.62214678898454,52.35311292577538,0.98,0,100,0,1,0,0,1,1,100,0.0,0.0,1,1,0,1
315,82,12,0,6.380603870004415,0.21405215738341088,1.014,0,14,0,1,0,0,1,1,100,10.982505917921664,7.061606633379409,1,1,0,1
315,83,12,0,5.569060231558979,0.7313655353151267,1.014,0,14,0,1,0,0,1,1,100,14.630863232910635,4.970024123489859,1,1,0,1
315,84,12,0,4.2871868234127755,-2.462699554581195,1.014,0,14,0,1,0,0,1,1,100,15.393593277409675,4.440866722092036,1,1,0,1
315,85,12,0,7.1256696587428445,-0.22194942897185843,1.014,0,14,0,1,0,0,1,1,100,15.141927933879199,7.589275171346966,1,1,0,1
315,86,12,0,7.012275140359997,0.48567373696714533,1.014,0,14,0,1,0,0,1,1,100,11.90089597273618,1.6907702912762765,1,1,0,1
315,87,155,0.048,63.390426196157925,-65.88878462603316,1.014,0,182,0,1,0,0,1,1,100,177.57623596163467,94.43319066595286,1,1,0,1
316,88,155,25.22,84.0509095415473,-41.37479418935254,1.017,0,182,0,1,0,0,1,1,100,148.91588633251376,51.25560917539987,1,1,0,1
318,89,400,137.4,174.24220871180296,-127.91685896227136,1.05,0,471,0,1,0,0,1,1,100,351.24157026410103,201.16993232124122,1,1,0,1
321,90,400,108.2,162.51955587416887,-48.5488472995348,1.05,0,471,0,1,0,0,1,1,100,348.4171649441123,35.20509862340987,1,1,0,1
322,91,50,-4.96,14.078724744170904,-6.251897775195539,1.05,0,53,0,1,0,0,1,1,100,38.53178484831005,3.402729663066566,1,1,0,1
322,92,50,-4.96,18.174632901698352,-11.967701820656657,1.05,0,53,0,1,0,0,1,1,100,43.65515704266727,31.224109191196472,1,1,0,1
322,93,50,-4.96,13.800974416732789,-14.271112334448844,1.05,0,53,0,1,0,0,1,1,100,61.982354721985764,1.5715958224609565,1,1,0,1
322,94,50,-4.96,20.50319449529052,-12.295056778285652,1.05,0,53,0,1,0,0,1,1,100,51.382067608647056,7.749851122498519,1,1,0,1
322,95,50,-4.96,13.208132763206958,-10.860435907449574,1.05,0,53,0,1,0,0,1,1,100,39.098842474631965,0.3625571192242276,1,1,0,1
322,96,50,-4.96,15.645942428708077,-7.5477846235036825,1.05,0,53,0,1,0,0,1,1,100,37.54575304919854,35.417558565478394,1,1,0,1
323,97,155,31.79,92.7450964525342,-12.125450239516795,1.05,0,182,0,1,0,0,1,1,100,144.2762314497959,70.67108004707843,1,1,0,1
323,98,155,31.79,72.90641289204359,-60.51544568641111,1.05,0,182,0,1,0,0,1,1,100,175.43816455709748,70.50321889527841,1,1,0,1
323,99,350,71.78,136.18804179131985,-87.62290309648964,1.05,0,412,0,1,0,0,1,1,100,428.6503985640593,208.15193346794692,1,1,0,1
0 / END OF GENERATOR DATA, BEGIN BRANCH DATA
101,102,1,0.003,0.014,0.461,210.0,231.6,240.0,0,0,0,0,1,1,0,1,1
101,103,1,0.055,0.211,0.057,210.0,249.6,264.0,0,0,0,0,1,1,0,1,1
101,105,1,0.022,0.085,0.023,210.0,249.6,264.0,0,0,0,0,1,1,0,1,1
102,104,1,0.033,0.127,0.034,210.0,249.6,264.0,0,0,0,0,1,1,0,1,1
102,106,1,0.05,0.192,0.052,210.0,249.6,264.0,0,0,0,0,1,1,0,1,1
103,109,1,0.031,0.119,0.032,210.0,249.6,264.0,0,0,0,0,1,1,0,1,1
104,109,1,0.027,0.104,0.028,210.0,249.6,264.0,0,0,0,0,1,1,0,1,1
105,110,1,0.023,0.088,0.024,210.0,249.6,264.0,0,0,0,0,1,1,0,1,1
106,110,1,0.014,0.061,2.459,210.0,231.6,240.0,0,0,0,0,1,1,0,1,1
107,108,1,0.016,0.061,0.017,210.0,249.6,264.0,0,0,0,0,1,1,0,1,1
107,203,1,0.042,0.161,0.044,210.0,249.6,264.0,0,0,0,0,1,1,0,1,1
108,109,1,0.043,0.165,0.045,210.0,249.6,264.0,0,0,0,0,1,1,0,1,1
108,110,1,0.043,0.165,0.045,210.0,249.6,264.0,0,0,0,0,1,1,0,1,1
111,113,1,0.006,0.048,0.1,600.0,720.0,750.0,0,0,0,0,1,1,0,1,1
111,114,1,0.005,0.042,0.088,600.0,720.0,750.0,0,0,0,0,1,1,0,1,1
112,113,1,0.006,0.048,0.1,600.0,720.0,750.0,0,0,0,0,1,1,0,1,1
112,123,1,0.012,0.097,0.203,600.0,720.0,750.0,0,0,0,0,1,1,0,1,1
113,123,1,0.011,0.087,0.182,600.0,720.0,750.0,0,0,0,0,1,1,0,1,1
113,215,1,0.01,0.075,0.158,600.0,720.0,750.0,0,0,0,0,1,1,0,1,1
114,116,1,0.005,0.059,0.082,600.0,720.0,750.0,0,0,0,0,1,1,0,1,1
115,116,1,0.002,0.017,0.036,600.0,720.0,750.0,0,0,0,0,1,1,0,1,1
115,121,1,0.006,0.049,0.103,600.0,720.0,750.0,0,0,0,0,1,1,0,1,1
115,121,2,0.006,0.049,0.103,600.0,720.0,750.0,0,0,0,0,1,1,0,1,1
115,124,1,0.007,0.052,0.109,600.0,720.0,750.0,0,0,0,0,1,1,0,1,1
116,117,1,0.003,0.026,0.055,600.0,720.0,750.0,0,0,0,0,1,1,0,1,1
116,119,1,0.003,0.023,0.049,600.0,720.0,750.0,0,0,0,0,1,1,0,1,1
117,118,1,0.002,0.014,0.03,600.0,720.0,750.0,0,0,0,0,1,1,0,1,1
117,122,1,0.014,0.105,0.221,600.0,720.0,750.0,0,0,0,0,1,1,0,1,1
118,121,1,0.003,0.026,0.055,600.0,720.0,750.0,0,0,0,0,1,1,0,1,1
118,121,2,0.003,0.026,0.055,600.0,720.0,750.0,0,0,0,0,1,1,0,1,1
119,120,1,0.005,0.04,0.083,600.0,720.0,750.0,0,0,0,0,1,1,0,1,1
119,120,2,0.005,0.04,0.083,600.0,720.0,750.0,0,0,0,0,1,1,0,1,1
120,123,1,0.003,0.022,0.046,600.0,720.0,750.0,0,0,0,0,1,1,0,1,1
120,123,2,0.003,0.022,0.046,600.0,720.0,750.0,0,0,0,0,1,1,0,1,1
121,122,1,0.009,0.068,0.142,600.0,720.0,750.0,0,0,0,0,1,1,0,1,1
123,217,1,0.01,0.074,0.155,600.0,720.0,750.0,0,0,0,0,1,1,0,1,1
201,202,1,0.003,0.014,0.461,210.0,231.6,240.0,0,0,0,0,1,1,0,1,1
201,203,1,0.055,0.211,0.057,210.0,249.6,264.0,0,0,0,0,1,1,0,1,1
201,205,1,0.022,0.085,0.023,210.0,249.6,264.0,0,0,0,0,1,1,0,1,1
202,204,1,0.033,0.127,0.034,210.0,249.6,264.0,0,0,0,0,1,1,0,1,1
202,206,1,0.05,0.192,0.052,210.0,249.6,264.0,0,0,0,0,1,1,0,1,1
203,209,1,0.031,0.119,0.032,210.0,249.6,264.0,0,0,0,0,1,1,0,1,1
204,209,1,0.027,0.104,0.028,210.0,249.6,264.0,0,0,0,0,1,1,0,1,1
205,210,1,0.023,0.088,0.024,210.0,249.6,264.0,0,0,0,0,1,1,0,1,1
206,210,1,0.014,0.061,2.459,210.0,231.6,240.0,0,0,0,0,1,1,0,1,1
207,208,1,0.016,0.061,0.017,210.0,249.6,264.0,0,0,0,0,1,1,0,1,1
208,209,1,0.043,0.165,0.045,210.0,249.6,264.0,0,0,0,0,1,1,0,1,1
208,210,1,0.043,0.165,0.045,210.0,249.6,264.0,0,0,0,0,1,1,0,1,1
211,213,1,0.006,0.048,0.1,600.0,720.0,750.0,0,0,0,0,1,1,0,1,1
211,214,1,0.005,0.042,0.088,600.0,720.0,750.0,0,0,0,0,1,1,0,1,1
212,213,1,0.006,0.048,0.1,600.0,720.0,750.0,0,0,0,0,1,1,0,1,1
212,223,1,0.012,0.097,0.203,600.0,720.0,750.0,0,0,0,0,1,1,0,1,1
213,223,1,0.011,0.087,0.182,600.0,720.0,750.0,0,0,0,0,1,1,0,1,1
214,216,1,0.005,0.059,0.082,600.0,720.0,750.0,0,0,0,0,1,1,0,1,1
215,216,1,0.002,0.017,0.036,600.0,720.0,750.0,0,0,0,0,1,1,0,1,1
215,221,1,0.006,0.049,0.103,600.0,720.0,750.0,0,0,0,0,1,1,0,1,1
215,221,2,0.006,0.049,0.103,600.0,720.0,750.0,0,0,0,0,1,1,0,1,1
215,224,1,0.007,0.052,0.109,600.0,720.0,750.0,0,0,0,0,1,1,0,1,1
216,217,1,0.003,0.026,0.055,600.0,720.0,750.0,0,0,0,0,1,1,0,1,1
216,219,1,0.003,0.023,0.049,600.0,720.0,750.0,0,0,0,0,1,1,0,1,1
217,218,1,0.002,0.014,0.03,600.0,720.0,750.0,0,0,0,0,1,1,0,1,1
217,222,1,0.014,0.105,0.221,600.0,720.0,750.0,0,0,0,0,1,1,0,1,1
218,221,1,0.003,0.026,0.055,600.0,720.0,750.0,0,0,0,0,1,1,0,1,1
218,221,2,0.003,0.026,0.055,600.0,720.0,750.0,0,0,0,0,1,1,0,1,1
219,220,1,0.005,0.04,0.083,600.0,720.0,750.0,0,0,0,0,1,1,0,1,1
219,220,2,0.005,0.04,0.083,600.0,720.0,750.0,0,0,0,0,1,1,0,1,1
220,223,1,0.003,0.022,0.046,600.0,720.0,750.0,0,0,0,0,1,1,0,1,1
220,223,2,0.003,0.022,0.046,600.0,720.0,750.0,0,0,0,0,1,1,0,1,1
221,222,1,0.009,0.068,0.142,600.0,720.0,750.0,0,0,0,0,1,1,0,1,1
301,302,1,0.003,0.014,0.461,210.0,231.6,240.0,0,0,0,0,1,1,0,1,1
301,303,1,0.055,0.211,0.057,210.0,249.6,264.0,0,0,0,0,1,1,0,1,1
301,305,1,0.022,0.085,0.023,210.0,249.6,264.0,0,0,0,0,1,1,0,1,1
302,304,1,0.033,0.127,0.034,210.0,249.6,264.0,0,0,0,0,1,1,0,1,1
302,306,1,0.05,0.192,0.052,210.0,249.6,264.0,0,0,0,0,1,1,0,1,1
303,309,1,0.031,0.119,0.032,210.0,249.6,264.0,0,0,0,0,1,1,0,1,1
304,309,1,0.027,0.104,0.028,210.0,249.6,264.0,0,0,0,0,1,1,0,1,1
305,310,1,0.023,0.088,0.024,210.0,249.6,264.0,0,0,0,0,1,1,0,1,1
306,310,1,0.014,0.061,2.459,210.0,231.6,240.0,0,0,0,0,1,1,0,1,1
307,308,1,0.016,0.061,0.017,210.0,249.6,264.0,0,0,0,0,1,1,0,1,1
308,309,1,0.043,0.165,0.045,210.0,249.6,264.0,0,0,0,0,1,1,0,1,1
308,310,1,0.043,0.165,0.045,210.0,249.6,264.0,0,0,0,0,1,1,0,1,1
311,313,1,0.006,0.048,0.1,600.0,720.0,750.0,0,0,0,0,1,1,0,1,1
311,314,1,0.005,0.042,0.088,600.0,720.0,750.0,0,0,0,0,1,1,0,1,1
312,313,1,0.006,0.048,0.1,600.0,720.0,750.0,0,0,0,0,1,1,0,1,1
312,323,1,0.012,0.097,0.203,600.0,720.0,750.0,0,0,0,0,1,1,0,1,1
313,323,1,0.011,0.087,0.182,600.0,720.0,750.0,0,0,0,0,1,1,0,1,1
314,316,1,0.005,0.059,0.082,600.0,720.0,750.0,0,0,0,0,1,1,0,1,1
315,316,1,0.002,0.017,0.036,600.0,720.0,750.0,0,0,0,0,1,1,0,1,1
315,321,1,0.006,0.049,0.103,600.0,720.0,750.0,0,0,0,0,1,1,0,1,1
315,321,2,0.006,0.049,0.103,600.0,720.0,750.0,0,0,0,0,1,1,0,1,1
315,324,1,0.007,0.052,0.109,600.0,720.0,750.0,0,0,0,0,1,1,0,1,1
316,317,1,0.003,0.026,0.055,600.0,720.0,750.0,0,0,0,0,1,1,0,1,1
316,319,1,0.003,0.023,0.049,600.0,720.0,750.0,0,0,0,0,1,1,0,1,1
317,318,1,0.002,0.014,0.03,600.0,720.0,750.0,0,0,0,0,1,1,0,1,1
317,322,1,0.014,0.105,0.221,600.0,720.0,750.0,0,0,0,0,1,1,0,1,1
318,223,1,0.013,0.104,0.218,600.0,720.0,750.0,0,0,0,0,1,1,0,1,1
318,321,1,0.003,0.026,0.055,600.0,720.0,750.0,0,0,0,0,1,1,0,1,1
318,321,2,0.003,0.026,0.055,600.0,720.0,750.0,0,0,0,0,1,1,0,1,1
319,320,1,0.005,0.04,0.083,600.0,720.0,750.0,0,0,0,0,1,1,0,1,1
319,320,2,0.005,0.04,0.083,600.0,720.0,750.0,0,0,0,0,1,1,0,1,1
320,323,1,0.003,0.022,0.046,600.0,720.0,750.0,0,0,0,0,1,1,0,1,1
320,323,2,0.003,0.022,0.046,600.0,720.0,750.0,0,0,0,0,1,1,0,1,1
321,322,1,0.009,0.068,0.142,600.0,720.0,750.0,0,0,0,0,1,1,0,1,1
323,325,1,0,0.009,0,866.4,1071.6,1071.6,0,0,0,0,1,1,0,1,1
325,121,1,0.012,0.097,0.203,600.0,720.0,750.0,0,0,0,0,1,1,0,1,1
0 / END OF BRANCH DATA, BEGIN TRANSFORMER DATA
  103 ,  124 , 0,  1 , 1, 1, 1, 0, 0, 2, '            ',  1 , 1, 1
   0.002000 ,  0.084000 ,  100.000000
   1.015000 , 0,  0.000000 ,  400.000000 ,  510.000000 ,  600.000000 , 0, 0,  1.10 ,  0.90 ,  1.10 ,  0.90 , 33, 0, 0, 0
   1.000000, 0
  109 ,  111 , 0,  1 , 1, 1, 1, 0, 0, 2, '            ',  1 , 1, 1
   0.002000 ,  0.084000 ,  100.000000
   1.030000 , 0,  0.000000 ,  400.000000 ,  510.000000 ,  600.000000 , 0, 0,  1.10 ,  0.90 ,  1.10 ,  0.90 , 33, 0, 0, 0
   1.000000, 0
  109 ,  112 , 0,  1 , 1, 1, 1, 0, 0, 2, '            ',  1 , 1, 1
   0.002000 ,  0.084000 ,  100.000000
   1.030000 , 0,  0.000000 ,  400.000000 ,  510.000000 ,  600.000000 , 0, 0,  1.10 ,  0.90 ,  1.10 ,  0.90 , 33, 0, 0, 0
   1.000000, 0
  110 ,  111 , 0,  1 , 1, 1, 1, 0, 0, 2, '            ',  1 , 1, 1
   0.002000 ,  0.084000 ,  100.000000
   1.015000 , 0,  0.000000 ,  400.000000 ,  510.000000 ,  600.000000 , 0, 0,  1.10 ,  0.90 ,  1.10 ,  0.90 , 33, 0, 0, 0
   1.000000, 0
  110 ,  112 , 0,  1 , 1, 1, 1, 0, 0, 2, '            ',  1 , 1, 1
   0.002000 ,  0.084000 ,  100.000000
   1.015000 , 0,  0.000000 ,  400.000000 ,  510.000000 ,  600.000000 , 0, 0,  1.10 ,  0.90 ,  1.10 ,  0.90 , 33, 0, 0, 0
   1.000000, 0
  203 ,  224 , 0,  1 , 1, 1, 1, 0, 0, 2, '            ',  1 , 1, 1
   0.002000 ,  0.084000 ,  100.000000
   1.015000 , 0,  0.000000 ,  400.000000 ,  510.000000 ,  600.000000 , 0, 0,  1.10 ,  0.90 ,  1.10 ,  0.90 , 33, 0, 0, 0
   1.000000, 0
  209 ,  211 , 0,  1 , 1, 1, 1, 0, 0, 2, '            ',  1 , 1, 1
   0.002000 ,  0.084000 ,  100.000000
   1.030000 , 0,  0.000000 ,  400.000000 ,  510.000000 ,  600.000000 , 0, 0,  1.10 ,  0.90 ,  1.10 ,  0.90 , 33, 0, 0, 0
   1.000000, 0
  209 ,  212 , 0,  1 , 1, 1, 1, 0, 0, 2, '            ',  1 , 1, 1
   0.002000 ,  0.084000 ,  100.000000
   1.030000 , 0,  0.000000 ,  400.000000 ,  510.000000 ,  600.000000 , 0, 0,  1.10 ,  0.90 ,  1.10 ,  0.90 , 33, 0, 0, 0
   1.000000, 0
  210 ,  211 , 0,  1 , 1, 1, 1, 0, 0, 2, '            ',  1 , 1, 1
   0.002000 ,  0.084000 ,  100.000000
   1.015000 , 0,  0.000000 ,  400.000000 ,  510.000000 ,  600.000000 , 0, 0,  1.10 ,  0.90 ,  1.10 ,  0.90 , 33, 0, 0, 0
   1.000000, 0
  210 ,  212 , 0,  1 , 1, 1, 1, 0, 0, 2, '            ',  1 , 1, 1
   0.002000 ,  0.084000 ,  100.000000
   1.015000 , 0,  0.000000 ,  400.000000 ,  510.000000 ,  600.000000 , 0, 0,  1.10 ,  0.90 ,  1.10 ,  0.90 , 33, 0, 0, 0
   1.000000, 0
  303 ,  324 , 0,  1 , 1, 1, 1, 0, 0, 2, '            ',  1 , 1, 1
   0.002000 ,  0.084000 ,  100.000000
   1.015000 , 0,  0.000000 ,  400.000000 ,  510.000000 ,  600.000000 , 0, 0,  1.10 ,  0.90 ,  1.10 ,  0.90 , 33, 0, 0, 0
   1.000000, 0
  309 ,  311 , 0,  1 , 1, 1, 1, 0, 0, 2, '            ',  1 , 1, 1
   0.002000 ,  0.084000 ,  100.000000
   1.030000 , 0,  0.000000 ,  400.000000 ,  510.000000 ,  600.000000 , 0, 0,  1.10 ,  0.90 ,  1.10 ,  0.90 , 33, 0, 0, 0
   1.000000, 0
  309 ,  312 , 0,  1 , 1, 1, 1, 0, 0, 2, '            ',  1 , 1, 1
   0.002000 ,  0.084000 ,  100.000000
   1.030000 , 0,  0.000000 ,  400.000000 ,  510.000000 ,  600.000000 , 0, 0,  1.10 ,  0.90 ,  1.10 ,  0.90 , 33, 0, 0, 0
   1.000000, 0
  310 ,  311 , 0,  1 , 1, 1, 1, 0, 0, 2, '            ',  1 , 1, 1
   0.002000 ,  0.084000 ,  100.000000
   1.015000 , 0,  0.000000 ,  400.000000 ,  510.000000 ,  600.000000 , 0, 0,  1.10 ,  0.90 ,  1.10 ,  0.90 , 33, 0, 0, 0
   1.000000, 0
  310 ,  312 , 0,  1 , 1, 1, 1, 0, 0, 2, '            ',  1 , 1, 1
   0.002000 ,  0.084000 ,  100.000000
   1.015000 , 0,  0.000000 ,  400.000000 ,  510.000000 ,  600.000000 , 0, 0,  1.10 ,  0.90 ,  1.10 ,  0.90 , 33, 0, 0, 0
   1.000000, 0
0 / END OF TRANSFORMER DATA, BEGIN AREA DATA
0 / END OF AREA DATA, BEGIN TWO-TERMINAL DC DATA
0 / END OF TWO-TERMINAL DC DATA, BEGIN VSC DC LINE DATA
0 / END OF VSC DC LINE DATA, BEGIN SWITCHED SHUNT DATA
0 / END OF SWITCHED SHUNT DATA, BEGIN IMPEDANCE CORRECTION DATA
0 / END OF IMPEDANCE CORRECTION DATA, BEGIN MULTI-TERMINAL DC DATA
0 / END OF MULTI-TERMINAL DC DATA, BEGIN MULTI-SECTION LINE DATA
0 / END OF MULTI-SECTION LINE DATA, BEGIN ZONE DATA
0 / END OF ZONE DATA, BEGIN INTER-AREA TRANSFER DATA
0 / END OF INTER-AREA TRANSFER DATA, BEGIN OWNER DATA
0 / END OF OWNER DATA, BEGIN FACTS CONTROL DEVICE DATA
0 / END OF FACTS CONTROL DEVICE DATA
0 / END OF SWITCHED SHUNT DATA, BEGIN GNE DATA
0 / END OF GNE DATA, BEGIN INDUCTION MACHINE DATA
0 / END OF INDUCTION MACHINE DATA
Q 
